tests/data/power_flow/floating_zero_sequence/asym_output.json
{
  "version": "1.0",
  "type": "asym_output",
  "is_batch": false,
  "attributes": {},
  "data": {
    "node": [
      {
        "id": 1,
        "energized": 1,
        "u_pu": [
          0.9685220554715526,
          1.0206083148508613,
          0.9878417547640305
        ],
        "u": [
          5591.764694425905,
          5892.4848531631515,
          5703.307030297653
        ],
        "u_angle": [
          -0.04074256636049687,
          -2.1441345251331376,
          2.0033567593816968
        ],
        "p": [
          1314971.9340071543,
          1691451.3014948303,
          2993576.7644979917
        ],
        "q": [
          989444.7461029778,
          -743175.1634956897,
          263988.08450858196
        ]
      },
      {
        "id": 2,
        "energized": 1,
        "u_pu": [
          0.9475084165766087,
          0.9962188755213724,
          1.026374631945291
        ],
        "u": [
          5470.442393699411,
          5751.6723595405065,
          5925.776700430169
        ],
        "u_angle": [
          2.5081331635193447,
          0.4781221575640046,
          -1.688791344148733
        ],
        "p": [
          1.2548582932767838e-08,
          1.302774370913572e-08,
          2.5285099200928076e-08
        ],
        "q": [
          1.921423432628391e-09,
          -2.5139098505749905e-08,
          6.794420383593723e-09
        ]
      },
      {
        "id": 3,
        "energized": 1,
        "u_pu": [
          0.9532856987894117,
          1.0317279231128014,
          0.9829895027342128
        ],
        "u": [
          5503.797548106873,
          5956.683941396293,
          5675.2925401417415
        ],
        "u_angle": [
          -0.07860954164747154,
          -2.182320125319959,
          1.8951713864745763
        ],
        "p": [
          -999999.9999999991,
          -1000000.0000000133,
          -4000000.0000000075
        ],
        "q": [
          8.049116928532385e-10,
          2.31666537805116e-08,
          7.105427357601002e-09
        ]
      }
    ],
    "transformer": [
      {
        "id": 4,
        "energized": 1,
        "loading": 0.6498356896389379,
        "p_from": [
          1314971.9340071543,
          1691451.3014948303,
          2993576.7644979917
        ],
        "q_from": [
          989444.7461029778,
          -743175.1634956897,
          263988.08450858196
        ],
        "i_from": [
          294.29822170602006,
          313.53774185504125,
          526.9213247473863
        ],
        "s_from": [
          1645646.40576805,
          1847516.3947758083,
          3005194.0958455205
        ],
        "p_to": [
          -2308548.684407611,
          -1006423.2333675779,
          -2685028.0822247765
        ],
        "q_to": [
          -978312.0928785654,
          -60818.915340574335,
          760155.0617734614
        ],
        "i_to": [
          458.3336252040918,
          175.2984457624831,
          470.9184475691707
        ],
        "s_to": [
          2507287.6937744003,
          1008259.2251624847,
          2790557.5644081375
        ]
      },
      {
        "id": 5,
        "energized": 1,
        "loading": 0.6306104483345069,
        "p_from": [
          2308548.684407624,
          1006423.2333675909,
          2685028.082224802
        ],
        "q_from": [
          978312.0928785674,
          60818.91534054925,
          -760155.0617734545
        ],
        "i_from": [
          458.33362520409406,
          175.29844576248513,
          470.91844756917453
        ],
        "s_from": [
          2507287.693774413,
          1008259.2251624962,
          2790557.5644081603
        ],
        "p_to": [
          -999999.9999999991,
          -1000000.0000000133,
          -4000000.0000000075
        ],
        "q_to": [
          8.049116928532385e-10,
          2.31666537805116e-08,
          7.105427357601002e-09
        ],
        "i_to": [
          181.69272965790074,
          167.87864016931633,
          704.8094828077545
        ],
        "s_to": [
          999999.9999999991,
          1000000.0000000133,
          4000000.0000000075
        ]
      }
    ],
    "asym_load": [
      {
        "id": 6,
        "energized": 1,
        "p": [
          1000000,
          1000000,
          4000000
        ],
        "q": [
          0,
          0,
          0
        ],
        "i": [
          181.6927296579009,
          167.8786401693141,
          704.809482807753
        ],
        "s": [
          1000000,
          1000000,
          4000000
        ],
        "pf": [
          1,
          1,
          1
        ]
      }
    ],
    "source": [
      {
        "id": 7,
        "energized": 1,
        "p": [
          1314971.934007154,
          1691451.3014948303,
          2993576.7644979917
        ],
        "q": [
          989444.7461029778,
          -743175.1634956899,
          263988.0845085821
        ],
        "i": [
          294.29822170602,
          313.53774185504125,
          526.9213247473863
        ],
        "s": [
          1645646.40576805,
          1847516.3947758083,
          3005194.0958455205
        ],
        "pf": [
          0.7990610433675971,
          0.9155270861345097,
          0.9961342492441373
        ]
      }
    ]
  }
}
